* NGSPICE file created from posoco2000.ext - technology: gf180mcuC

* Black-box entry subcircuit for gf180mcu_fd_sc_mcu7t5v0__fill_1 abstract view
.subckt gf180mcu_fd_sc_mcu7t5v0__fill_1 VDD VSS
.ends

* Black-box entry subcircuit for gf180mcu_fd_sc_mcu7t5v0__filltie abstract view
.subckt gf180mcu_fd_sc_mcu7t5v0__filltie VDD VSS
.ends

* Black-box entry subcircuit for gf180mcu_fd_sc_mcu7t5v0__fillcap_64 abstract view
.subckt gf180mcu_fd_sc_mcu7t5v0__fillcap_64 VDD VSS
.ends

* Black-box entry subcircuit for gf180mcu_fd_sc_mcu7t5v0__fillcap_4 abstract view
.subckt gf180mcu_fd_sc_mcu7t5v0__fillcap_4 VDD VSS
.ends

* Black-box entry subcircuit for gf180mcu_fd_sc_mcu7t5v0__fill_2 abstract view
.subckt gf180mcu_fd_sc_mcu7t5v0__fill_2 VDD VSS
.ends

* Black-box entry subcircuit for gf180mcu_fd_sc_mcu7t5v0__fillcap_8 abstract view
.subckt gf180mcu_fd_sc_mcu7t5v0__fillcap_8 VDD VSS
.ends

* Black-box entry subcircuit for gf180mcu_fd_sc_mcu7t5v0__antenna abstract view
.subckt gf180mcu_fd_sc_mcu7t5v0__antenna I VDD VSS
.ends

* Black-box entry subcircuit for gf180mcu_fd_sc_mcu7t5v0__clkinv_1 abstract view
.subckt gf180mcu_fd_sc_mcu7t5v0__clkinv_1 I ZN VDD VSS
.ends

* Black-box entry subcircuit for gf180mcu_fd_sc_mcu7t5v0__fillcap_32 abstract view
.subckt gf180mcu_fd_sc_mcu7t5v0__fillcap_32 VDD VSS
.ends

* Black-box entry subcircuit for gf180mcu_fd_sc_mcu7t5v0__clkbuf_3 abstract view
.subckt gf180mcu_fd_sc_mcu7t5v0__clkbuf_3 I Z VDD VSS
.ends

* Black-box entry subcircuit for gf180mcu_fd_sc_mcu7t5v0__fillcap_16 abstract view
.subckt gf180mcu_fd_sc_mcu7t5v0__fillcap_16 VDD VSS
.ends

* Black-box entry subcircuit for gf180mcu_fd_sc_mcu7t5v0__oai22_1 abstract view
.subckt gf180mcu_fd_sc_mcu7t5v0__oai22_1 A1 A2 B1 B2 ZN VDD VSS
.ends

* Black-box entry subcircuit for gf180mcu_fd_sc_mcu7t5v0__nor3_1 abstract view
.subckt gf180mcu_fd_sc_mcu7t5v0__nor3_1 A1 A2 A3 ZN VDD VSS
.ends

* Black-box entry subcircuit for gf180mcu_fd_sc_mcu7t5v0__endcap abstract view
.subckt gf180mcu_fd_sc_mcu7t5v0__endcap VDD VSS
.ends

* Black-box entry subcircuit for gf180mcu_fd_sc_mcu7t5v0__dffq_1 abstract view
.subckt gf180mcu_fd_sc_mcu7t5v0__dffq_1 D CLK Q VDD VSS
.ends

* Black-box entry subcircuit for gf180mcu_fd_sc_mcu7t5v0__tiel abstract view
.subckt gf180mcu_fd_sc_mcu7t5v0__tiel ZN VDD VSS
.ends

* Black-box entry subcircuit for gf180mcu_fd_sc_mcu7t5v0__clkbuf_1 abstract view
.subckt gf180mcu_fd_sc_mcu7t5v0__clkbuf_1 I Z VDD VSS
.ends

* Black-box entry subcircuit for gf180mcu_fd_sc_mcu7t5v0__tieh abstract view
.subckt gf180mcu_fd_sc_mcu7t5v0__tieh Z VDD VSS
.ends

* Black-box entry subcircuit for gf180mcu_fd_sc_mcu7t5v0__clkbuf_16 abstract view
.subckt gf180mcu_fd_sc_mcu7t5v0__clkbuf_16 I Z VDD VSS
.ends

* Black-box entry subcircuit for gf180mcu_fd_sc_mcu7t5v0__oai32_1 abstract view
.subckt gf180mcu_fd_sc_mcu7t5v0__oai32_1 A1 A2 A3 B1 B2 ZN VDD VSS
.ends

* Black-box entry subcircuit for gf180mcu_fd_sc_mcu7t5v0__and3_1 abstract view
.subckt gf180mcu_fd_sc_mcu7t5v0__and3_1 A1 A2 A3 Z VDD VSS
.ends

* Black-box entry subcircuit for gf180mcu_fd_sc_mcu7t5v0__nand2_1 abstract view
.subckt gf180mcu_fd_sc_mcu7t5v0__nand2_1 A1 A2 ZN VDD VSS
.ends

* Black-box entry subcircuit for gf180mcu_fd_sc_mcu7t5v0__oai21_1 abstract view
.subckt gf180mcu_fd_sc_mcu7t5v0__oai21_1 A1 A2 B ZN VDD VSS
.ends

* Black-box entry subcircuit for gf180mcu_fd_sc_mcu7t5v0__xor2_1 abstract view
.subckt gf180mcu_fd_sc_mcu7t5v0__xor2_1 A1 A2 Z VDD VSS
.ends

* Black-box entry subcircuit for gf180mcu_fd_sc_mcu7t5v0__nor2_1 abstract view
.subckt gf180mcu_fd_sc_mcu7t5v0__nor2_1 A1 A2 ZN VDD VSS
.ends

* Black-box entry subcircuit for gf180mcu_fd_sc_mcu7t5v0__aoi211_1 abstract view
.subckt gf180mcu_fd_sc_mcu7t5v0__aoi211_1 A1 A2 B C ZN VDD VSS
.ends

* Black-box entry subcircuit for gf180mcu_fd_sc_mcu7t5v0__oai221_1 abstract view
.subckt gf180mcu_fd_sc_mcu7t5v0__oai221_1 A1 A2 B1 B2 C ZN VDD VSS
.ends

* Black-box entry subcircuit for gf180mcu_fd_sc_mcu7t5v0__and2_1 abstract view
.subckt gf180mcu_fd_sc_mcu7t5v0__and2_1 A1 A2 Z VDD VSS
.ends

* Black-box entry subcircuit for gf180mcu_fd_sc_mcu7t5v0__or2_1 abstract view
.subckt gf180mcu_fd_sc_mcu7t5v0__or2_1 A1 A2 Z VDD VSS
.ends

* Black-box entry subcircuit for gf180mcu_fd_sc_mcu7t5v0__oai31_1 abstract view
.subckt gf180mcu_fd_sc_mcu7t5v0__oai31_1 A1 A2 A3 B ZN VDD VSS
.ends

* Black-box entry subcircuit for gf180mcu_fd_sc_mcu7t5v0__aoi21_1 abstract view
.subckt gf180mcu_fd_sc_mcu7t5v0__aoi21_1 A1 A2 B ZN VDD VSS
.ends

* Black-box entry subcircuit for gf180mcu_fd_sc_mcu7t5v0__aoi22_1 abstract view
.subckt gf180mcu_fd_sc_mcu7t5v0__aoi22_1 A1 A2 B1 B2 ZN VDD VSS
.ends

* Black-box entry subcircuit for gf180mcu_fd_sc_mcu7t5v0__oai211_1 abstract view
.subckt gf180mcu_fd_sc_mcu7t5v0__oai211_1 A1 A2 B C ZN VDD VSS
.ends

* Black-box entry subcircuit for gf180mcu_fd_sc_mcu7t5v0__buf_1 abstract view
.subckt gf180mcu_fd_sc_mcu7t5v0__buf_1 I Z VDD VSS
.ends

* Black-box entry subcircuit for gf180mcu_fd_sc_mcu7t5v0__nand3_1 abstract view
.subckt gf180mcu_fd_sc_mcu7t5v0__nand3_1 A1 A2 A3 ZN VDD VSS
.ends

.subckt posoco2000 clk segm[0] segm[1] segm[2] segm[3] segm[4] segm[5] segm[6] segm[7]
+ sel[0] sel[1] sel[2] sel[3] sel[4] sel[5] sel[6] sel[7] sel[8] sel[9] vdd vss
XFILLER_54_247 vdd vss gf180mcu_fd_sc_mcu7t5v0__fill_1
XTAP_199 vdd vss gf180mcu_fd_sc_mcu7t5v0__filltie
XTAP_188 vdd vss gf180mcu_fd_sc_mcu7t5v0__filltie
XTAP_177 vdd vss gf180mcu_fd_sc_mcu7t5v0__filltie
XFILLER_27_428 vdd vss gf180mcu_fd_sc_mcu7t5v0__fillcap_64
XFILLER_9_137 vdd vss gf180mcu_fd_sc_mcu7t5v0__fillcap_4
XFILLER_13_144 vdd vss gf180mcu_fd_sc_mcu7t5v0__fillcap_64
XFILLER_5_354 vdd vss gf180mcu_fd_sc_mcu7t5v0__fill_1
XFILLER_36_247 vdd vss gf180mcu_fd_sc_mcu7t5v0__fill_1
XFILLER_32_475 vdd vss gf180mcu_fd_sc_mcu7t5v0__fill_2
XFILLER_17_494 vdd vss gf180mcu_fd_sc_mcu7t5v0__fill_2
XFILLER_27_269 vdd vss gf180mcu_fd_sc_mcu7t5v0__fill_2
XFILLER_50_250 vdd vss gf180mcu_fd_sc_mcu7t5v0__fillcap_64
XFILLER_12_21 vdd vss gf180mcu_fd_sc_mcu7t5v0__fillcap_8
XANTENNA__163__CLK clknet_1_1__leaf_clk vdd vss gf180mcu_fd_sc_mcu7t5v0__antenna
XFILLER_37_73 vdd vss gf180mcu_fd_sc_mcu7t5v0__fillcap_64
XFILLER_18_247 vdd vss gf180mcu_fd_sc_mcu7t5v0__fill_1
XFILLER_41_283 vdd vss gf180mcu_fd_sc_mcu7t5v0__fill_1
XFILLER_26_280 vdd vss gf180mcu_fd_sc_mcu7t5v0__fill_2
XFILLER_49_350 vdd vss gf180mcu_fd_sc_mcu7t5v0__fillcap_4
XFILLER_32_250 vdd vss gf180mcu_fd_sc_mcu7t5v0__fillcap_64
XFILLER_9_490 vdd vss gf180mcu_fd_sc_mcu7t5v0__fillcap_4
XFILLER_7_405 vdd vss gf180mcu_fd_sc_mcu7t5v0__fillcap_4
X_131_ net16 _073_ vdd vss gf180mcu_fd_sc_mcu7t5v0__clkinv_1
XFILLER_2_176 vdd vss gf180mcu_fd_sc_mcu7t5v0__fill_1
XFILLER_9_66 vdd vss gf180mcu_fd_sc_mcu7t5v0__fillcap_4
XFILLER_14_250 vdd vss gf180mcu_fd_sc_mcu7t5v0__fillcap_32
XFILLER_43_2 vdd vss gf180mcu_fd_sc_mcu7t5v0__fillcap_64
XFILLER_6_460 vdd vss gf180mcu_fd_sc_mcu7t5v0__fill_1
XFILLER_64_172 vdd vss gf180mcu_fd_sc_mcu7t5v0__fillcap_4
XFILLER_52_389 vdd vss gf180mcu_fd_sc_mcu7t5v0__fill_1
XFILLER_40_507 vdd vss gf180mcu_fd_sc_mcu7t5v0__fill_2
XFILLER_60_29 vdd vss gf180mcu_fd_sc_mcu7t5v0__fillcap_4
XFILLER_31_507 vdd vss gf180mcu_fd_sc_mcu7t5v0__fill_2
XTAP_507 vdd vss gf180mcu_fd_sc_mcu7t5v0__filltie
X_114_ net8 _061_ vdd vss gf180mcu_fd_sc_mcu7t5v0__clkinv_1
XFILLER_7_279 vdd vss gf180mcu_fd_sc_mcu7t5v0__fillcap_4
XFILLER_11_286 vdd vss gf180mcu_fd_sc_mcu7t5v0__fillcap_64
XTAP_529 vdd vss gf180mcu_fd_sc_mcu7t5v0__filltie
XTAP_518 vdd vss gf180mcu_fd_sc_mcu7t5v0__filltie
XFILLER_3_496 vdd vss gf180mcu_fd_sc_mcu7t5v0__fill_1
XFILLER_19_320 vdd vss gf180mcu_fd_sc_mcu7t5v0__fillcap_4
XFILLER_19_331 vdd vss gf180mcu_fd_sc_mcu7t5v0__fill_2
XFILLER_46_172 vdd vss gf180mcu_fd_sc_mcu7t5v0__fillcap_4
XFILLER_34_389 vdd vss gf180mcu_fd_sc_mcu7t5v0__fill_1
XFILLER_22_507 vdd vss gf180mcu_fd_sc_mcu7t5v0__fill_2
XFILLER_13_507 vdd vss gf180mcu_fd_sc_mcu7t5v0__fill_2
XFILLER_0_411 vdd vss gf180mcu_fd_sc_mcu7t5v0__fillcap_4
XFILLER_0_422 vdd vss gf180mcu_fd_sc_mcu7t5v0__fill_2
XFILLER_45_73 vdd vss gf180mcu_fd_sc_mcu7t5v0__fillcap_64
XFILLER_28_172 vdd vss gf180mcu_fd_sc_mcu7t5v0__fillcap_4
XFILLER_6_34 vdd vss gf180mcu_fd_sc_mcu7t5v0__fill_1
XANTENNA__126__A2 _065_ vdd vss gf180mcu_fd_sc_mcu7t5v0__antenna
XTAP_348 vdd vss gf180mcu_fd_sc_mcu7t5v0__filltie
XTAP_304 vdd vss gf180mcu_fd_sc_mcu7t5v0__filltie
XTAP_315 vdd vss gf180mcu_fd_sc_mcu7t5v0__filltie
XTAP_326 vdd vss gf180mcu_fd_sc_mcu7t5v0__filltie
XTAP_337 vdd vss gf180mcu_fd_sc_mcu7t5v0__filltie
XFILLER_47_492 vdd vss gf180mcu_fd_sc_mcu7t5v0__fillcap_4
XTAP_359 vdd vss gf180mcu_fd_sc_mcu7t5v0__filltie
XFILLER_62_495 vdd vss gf180mcu_fd_sc_mcu7t5v0__fillcap_8
XANTENNA__077__I _030_ vdd vss gf180mcu_fd_sc_mcu7t5v0__antenna
XFILLER_30_392 vdd vss gf180mcu_fd_sc_mcu7t5v0__fillcap_64
XFILLER_57_212 vdd vss gf180mcu_fd_sc_mcu7t5v0__fill_1
XFILLER_1_208 vdd vss gf180mcu_fd_sc_mcu7t5v0__fillcap_4
XFILLER_40_101 vdd vss gf180mcu_fd_sc_mcu7t5v0__fillcap_4
XFILLER_13_337 vdd vss gf180mcu_fd_sc_mcu7t5v0__fill_2
Xoutput7 net7 sel[0] vdd vss gf180mcu_fd_sc_mcu7t5v0__clkbuf_3
XFILLER_63_215 vdd vss gf180mcu_fd_sc_mcu7t5v0__fillcap_64
XFILLER_44_495 vdd vss gf180mcu_fd_sc_mcu7t5v0__fillcap_8
XFILLER_29_492 vdd vss gf180mcu_fd_sc_mcu7t5v0__fillcap_4
XFILLER_8_385 vdd vss gf180mcu_fd_sc_mcu7t5v0__fillcap_4
XFILLER_8_396 vdd vss gf180mcu_fd_sc_mcu7t5v0__fill_2
XFILLER_12_392 vdd vss gf180mcu_fd_sc_mcu7t5v0__fillcap_16
XFILLER_39_212 vdd vss gf180mcu_fd_sc_mcu7t5v0__fill_1
XTAP_189 vdd vss gf180mcu_fd_sc_mcu7t5v0__filltie
XTAP_178 vdd vss gf180mcu_fd_sc_mcu7t5v0__filltie
XTAP_167 vdd vss gf180mcu_fd_sc_mcu7t5v0__filltie
XTAP_156 vdd vss gf180mcu_fd_sc_mcu7t5v0__filltie
XTAP_145 vdd vss gf180mcu_fd_sc_mcu7t5v0__filltie
XFILLER_10_318 vdd vss gf180mcu_fd_sc_mcu7t5v0__fill_1
XFILLER_22_101 vdd vss gf180mcu_fd_sc_mcu7t5v0__fillcap_4
XFILLER_45_215 vdd vss gf180mcu_fd_sc_mcu7t5v0__fillcap_64
XFILLER_41_421 vdd vss gf180mcu_fd_sc_mcu7t5v0__fillcap_4
XFILLER_26_495 vdd vss gf180mcu_fd_sc_mcu7t5v0__fillcap_8
XFILLER_17_462 vdd vss gf180mcu_fd_sc_mcu7t5v0__fillcap_32
XFILLER_67_373 vdd vss gf180mcu_fd_sc_mcu7t5v0__fillcap_8
XFILLER_27_215 vdd vss gf180mcu_fd_sc_mcu7t5v0__fillcap_16
XFILLER_6_108 vdd vss gf180mcu_fd_sc_mcu7t5v0__fillcap_64
XFILLER_12_33 vdd vss gf180mcu_fd_sc_mcu7t5v0__fill_2
XFILLER_2_314 vdd vss gf180mcu_fd_sc_mcu7t5v0__fillcap_4
XFILLER_53_73 vdd vss gf180mcu_fd_sc_mcu7t5v0__fillcap_64
XFILLER_26_270 vdd vss gf180mcu_fd_sc_mcu7t5v0__fillcap_4
XFILLER_5_141 vdd vss gf180mcu_fd_sc_mcu7t5v0__fill_1
XFILLER_64_321 vdd vss gf180mcu_fd_sc_mcu7t5v0__fillcap_64
XFILLER_59_137 vdd vss gf180mcu_fd_sc_mcu7t5v0__fillcap_4
XFILLER_55_354 vdd vss gf180mcu_fd_sc_mcu7t5v0__fill_1
XFILLER_11_424 vdd vss gf180mcu_fd_sc_mcu7t5v0__fill_2
XFILLER_23_295 vdd vss gf180mcu_fd_sc_mcu7t5v0__fillcap_4
X_130_ _072_ _048_ _070_ _042_ _010_ vdd vss gf180mcu_fd_sc_mcu7t5v0__oai22_1
XFILLER_7_428 vdd vss gf180mcu_fd_sc_mcu7t5v0__fillcap_8
XFILLER_3_2 vdd vss gf180mcu_fd_sc_mcu7t5v0__fillcap_64
XFILLER_61_357 vdd vss gf180mcu_fd_sc_mcu7t5v0__fillcap_64
XFILLER_46_321 vdd vss gf180mcu_fd_sc_mcu7t5v0__fillcap_64
XFILLER_0_69 vdd vss gf180mcu_fd_sc_mcu7t5v0__fill_1
XFILLER_36_2 vdd vss gf180mcu_fd_sc_mcu7t5v0__fillcap_32
XFILLER_6_450 vdd vss gf180mcu_fd_sc_mcu7t5v0__fill_2
XFILLER_37_354 vdd vss gf180mcu_fd_sc_mcu7t5v0__fill_1
XANTENNA__153__CLK clknet_1_0__leaf_clk vdd vss gf180mcu_fd_sc_mcu7t5v0__antenna
XFILLER_20_243 vdd vss gf180mcu_fd_sc_mcu7t5v0__fillcap_4
XFILLER_20_276 vdd vss gf180mcu_fd_sc_mcu7t5v0__fill_1
XFILLER_20_287 vdd vss gf180mcu_fd_sc_mcu7t5v0__fill_1
XFILLER_43_357 vdd vss gf180mcu_fd_sc_mcu7t5v0__fillcap_64
XFILLER_28_321 vdd vss gf180mcu_fd_sc_mcu7t5v0__fillcap_64
XANTENNA_output12_I net12 vdd vss gf180mcu_fd_sc_mcu7t5v0__antenna
X_113_ _058_ _051_ _060_ _044_ _005_ vdd vss gf180mcu_fd_sc_mcu7t5v0__oai22_1
XTAP_519 vdd vss gf180mcu_fd_sc_mcu7t5v0__filltie
XTAP_508 vdd vss gf180mcu_fd_sc_mcu7t5v0__filltie
XFILLER_65_460 vdd vss gf180mcu_fd_sc_mcu7t5v0__fillcap_16
XFILLER_25_302 vdd vss gf180mcu_fd_sc_mcu7t5v0__fill_2
XFILLER_25_357 vdd vss gf180mcu_fd_sc_mcu7t5v0__fillcap_64
XFILLER_52_176 vdd vss gf180mcu_fd_sc_mcu7t5v0__fill_1
XFILLER_0_489 vdd vss gf180mcu_fd_sc_mcu7t5v0__fill_1
XFILLER_56_460 vdd vss gf180mcu_fd_sc_mcu7t5v0__fill_1
XFILLER_16_346 vdd vss gf180mcu_fd_sc_mcu7t5v0__fill_2
XFILLER_16_368 vdd vss gf180mcu_fd_sc_mcu7t5v0__fill_2
XFILLER_61_73 vdd vss gf180mcu_fd_sc_mcu7t5v0__fillcap_64
XTAP_349 vdd vss gf180mcu_fd_sc_mcu7t5v0__filltie
XFILLER_3_283 vdd vss gf180mcu_fd_sc_mcu7t5v0__fill_1
XTAP_305 vdd vss gf180mcu_fd_sc_mcu7t5v0__filltie
XTAP_316 vdd vss gf180mcu_fd_sc_mcu7t5v0__filltie
XTAP_327 vdd vss gf180mcu_fd_sc_mcu7t5v0__filltie
XTAP_338 vdd vss gf180mcu_fd_sc_mcu7t5v0__filltie
XFILLER_62_463 vdd vss gf180mcu_fd_sc_mcu7t5v0__fillcap_32
XFILLER_34_176 vdd vss gf180mcu_fd_sc_mcu7t5v0__fill_1
XFILLER_22_305 vdd vss gf180mcu_fd_sc_mcu7t5v0__fill_2
XFILLER_57_279 vdd vss gf180mcu_fd_sc_mcu7t5v0__fillcap_4
XFILLER_53_496 vdd vss gf180mcu_fd_sc_mcu7t5v0__fill_1
XFILLER_38_460 vdd vss gf180mcu_fd_sc_mcu7t5v0__fill_1
XFILLER_13_349 vdd vss gf180mcu_fd_sc_mcu7t5v0__fillcap_4
XFILLER_15_66 vdd vss gf180mcu_fd_sc_mcu7t5v0__fillcap_4
XFILLER_40_179 vdd vss gf180mcu_fd_sc_mcu7t5v0__fillcap_64
Xoutput8 net8 sel[1] vdd vss gf180mcu_fd_sc_mcu7t5v0__clkbuf_3
XFILLER_0_231 vdd vss gf180mcu_fd_sc_mcu7t5v0__fillcap_8
Xoutput10 net10 sel[3] vdd vss gf180mcu_fd_sc_mcu7t5v0__clkbuf_3
XFILLER_44_463 vdd vss gf180mcu_fd_sc_mcu7t5v0__fillcap_32
XFILLER_16_176 vdd vss gf180mcu_fd_sc_mcu7t5v0__fill_1
XTAP_179 vdd vss gf180mcu_fd_sc_mcu7t5v0__filltie
XTAP_168 vdd vss gf180mcu_fd_sc_mcu7t5v0__filltie
XTAP_157 vdd vss gf180mcu_fd_sc_mcu7t5v0__filltie
XTAP_146 vdd vss gf180mcu_fd_sc_mcu7t5v0__filltie
XFILLER_39_279 vdd vss gf180mcu_fd_sc_mcu7t5v0__fillcap_4
XFILLER_35_496 vdd vss gf180mcu_fd_sc_mcu7t5v0__fill_1
XANTENNA__088__I dut.count\[0\] vdd vss gf180mcu_fd_sc_mcu7t5v0__antenna
XFILLER_22_179 vdd vss gf180mcu_fd_sc_mcu7t5v0__fillcap_64
XFILLER_41_499 vdd vss gf180mcu_fd_sc_mcu7t5v0__fillcap_8
XFILLER_26_463 vdd vss gf180mcu_fd_sc_mcu7t5v0__fillcap_32
XFILLER_67_72 vdd vss gf180mcu_fd_sc_mcu7t5v0__fillcap_32
XFILLER_64_503 vdd vss gf180mcu_fd_sc_mcu7t5v0__fillcap_4
XFILLER_51_208 vdd vss gf180mcu_fd_sc_mcu7t5v0__fillcap_4
XFILLER_17_452 vdd vss gf180mcu_fd_sc_mcu7t5v0__fill_2
XFILLER_17_496 vdd vss gf180mcu_fd_sc_mcu7t5v0__fill_1
XFILLER_8_172 vdd vss gf180mcu_fd_sc_mcu7t5v0__fillcap_4
XFILLER_66_2 vdd vss gf180mcu_fd_sc_mcu7t5v0__fillcap_32
XFILLER_67_352 vdd vss gf180mcu_fd_sc_mcu7t5v0__fill_2
XFILLER_10_105 vdd vss gf180mcu_fd_sc_mcu7t5v0__fill_1
XFILLER_23_499 vdd vss gf180mcu_fd_sc_mcu7t5v0__fillcap_8
XFILLER_58_385 vdd vss gf180mcu_fd_sc_mcu7t5v0__fillcap_4
XFILLER_46_503 vdd vss gf180mcu_fd_sc_mcu7t5v0__fillcap_4
XFILLER_33_208 vdd vss gf180mcu_fd_sc_mcu7t5v0__fillcap_4
XFILLER_14_466 vdd vss gf180mcu_fd_sc_mcu7t5v0__fillcap_4
XFILLER_14_477 vdd vss gf180mcu_fd_sc_mcu7t5v0__fill_2
XANTENNA_output2_I net2 vdd vss gf180mcu_fd_sc_mcu7t5v0__antenna
XFILLER_17_293 vdd vss gf180mcu_fd_sc_mcu7t5v0__fill_2
XFILLER_9_470 vdd vss gf180mcu_fd_sc_mcu7t5v0__fill_2
XFILLER_20_458 vdd vss gf180mcu_fd_sc_mcu7t5v0__fill_2
XFILLER_15_208 vdd vss gf180mcu_fd_sc_mcu7t5v0__fillcap_4
XFILLER_28_503 vdd vss gf180mcu_fd_sc_mcu7t5v0__fillcap_4
XFILLER_23_66 vdd vss gf180mcu_fd_sc_mcu7t5v0__fillcap_4
XFILLER_2_101 vdd vss gf180mcu_fd_sc_mcu7t5v0__fillcap_4
XFILLER_0_37 vdd vss gf180mcu_fd_sc_mcu7t5v0__fillcap_32
XANTENNA__135__B _032_ vdd vss gf180mcu_fd_sc_mcu7t5v0__antenna
XFILLER_6_473 vdd vss gf180mcu_fd_sc_mcu7t5v0__fill_2
XFILLER_29_2 vdd vss gf180mcu_fd_sc_mcu7t5v0__fillcap_64
XFILLER_56_108 vdd vss gf180mcu_fd_sc_mcu7t5v0__fillcap_64
XFILLER_52_314 vdd vss gf180mcu_fd_sc_mcu7t5v0__fillcap_4
XANTENNA__096__I net13 vdd vss gf180mcu_fd_sc_mcu7t5v0__antenna
XANTENNA__147__A1 _032_ vdd vss gf180mcu_fd_sc_mcu7t5v0__antenna
XFILLER_55_141 vdd vss gf180mcu_fd_sc_mcu7t5v0__fill_1
XFILLER_7_215 vdd vss gf180mcu_fd_sc_mcu7t5v0__fillcap_64
XANTENNA__138__A1 net2 vdd vss gf180mcu_fd_sc_mcu7t5v0__antenna
X_112_ _059_ _060_ vdd vss gf180mcu_fd_sc_mcu7t5v0__clkinv_1
XFILLER_59_73 vdd vss gf180mcu_fd_sc_mcu7t5v0__fillcap_64
XTAP_509 vdd vss gf180mcu_fd_sc_mcu7t5v0__filltie
XFILLER_38_108 vdd vss gf180mcu_fd_sc_mcu7t5v0__fillcap_64
XFILLER_34_314 vdd vss gf180mcu_fd_sc_mcu7t5v0__fillcap_4
XFILLER_19_366 vdd vss gf180mcu_fd_sc_mcu7t5v0__fill_2
XFILLER_61_144 vdd vss gf180mcu_fd_sc_mcu7t5v0__fillcap_64
XFILLER_57_428 vdd vss gf180mcu_fd_sc_mcu7t5v0__fillcap_64
XFILLER_37_141 vdd vss gf180mcu_fd_sc_mcu7t5v0__fill_1
XFILLER_25_314 vdd vss gf180mcu_fd_sc_mcu7t5v0__fill_2
XFILLER_0_424 vdd vss gf180mcu_fd_sc_mcu7t5v0__fill_1
XFILLER_20_34 vdd vss gf180mcu_fd_sc_mcu7t5v0__fill_1
XFILLER_0_457 vdd vss gf180mcu_fd_sc_mcu7t5v0__fill_2
XFILLER_16_314 vdd vss gf180mcu_fd_sc_mcu7t5v0__fill_2
XFILLER_43_144 vdd vss gf180mcu_fd_sc_mcu7t5v0__fillcap_64
XFILLER_39_428 vdd vss gf180mcu_fd_sc_mcu7t5v0__fillcap_64
XTAP_306 vdd vss gf180mcu_fd_sc_mcu7t5v0__filltie
XTAP_317 vdd vss gf180mcu_fd_sc_mcu7t5v0__filltie
XTAP_328 vdd vss gf180mcu_fd_sc_mcu7t5v0__filltie
XTAP_339 vdd vss gf180mcu_fd_sc_mcu7t5v0__filltie
XFILLER_66_247 vdd vss gf180mcu_fd_sc_mcu7t5v0__fill_1
XFILLER_19_141 vdd vss gf180mcu_fd_sc_mcu7t5v0__fill_1
XFILLER_22_328 vdd vss gf180mcu_fd_sc_mcu7t5v0__fill_2
XFILLER_22_339 vdd vss gf180mcu_fd_sc_mcu7t5v0__fill_2
XFILLER_25_144 vdd vss gf180mcu_fd_sc_mcu7t5v0__fillcap_64
XFILLER_31_66 vdd vss gf180mcu_fd_sc_mcu7t5v0__fillcap_4
XANTENNA__166__CLK clknet_1_0__leaf_clk vdd vss gf180mcu_fd_sc_mcu7t5v0__antenna
Xoutput9 net9 sel[2] vdd vss gf180mcu_fd_sc_mcu7t5v0__clkbuf_3
XFILLER_0_243 vdd vss gf180mcu_fd_sc_mcu7t5v0__fill_2
Xoutput11 net11 sel[4] vdd vss gf180mcu_fd_sc_mcu7t5v0__clkbuf_3
XFILLER_48_247 vdd vss gf180mcu_fd_sc_mcu7t5v0__fill_1
XFILLER_8_321 vdd vss gf180mcu_fd_sc_mcu7t5v0__fillcap_64
XFILLER_8_398 vdd vss gf180mcu_fd_sc_mcu7t5v0__fill_1
XTAP_169 vdd vss gf180mcu_fd_sc_mcu7t5v0__filltie
XTAP_158 vdd vss gf180mcu_fd_sc_mcu7t5v0__filltie
XTAP_136 vdd vss gf180mcu_fd_sc_mcu7t5v0__filltie
XTAP_147 vdd vss gf180mcu_fd_sc_mcu7t5v0__filltie
XFILLER_11_2 vdd vss gf180mcu_fd_sc_mcu7t5v0__fillcap_64
XFILLER_62_250 vdd vss gf180mcu_fd_sc_mcu7t5v0__fillcap_64
XFILLER_50_456 vdd vss gf180mcu_fd_sc_mcu7t5v0__fillcap_4
XFILLER_2_508 vdd vss gf180mcu_fd_sc_mcu7t5v0__fill_1
XFILLER_53_283 vdd vss gf180mcu_fd_sc_mcu7t5v0__fill_1
XFILLER_5_357 vdd vss gf180mcu_fd_sc_mcu7t5v0__fillcap_64
XFILLER_44_250 vdd vss gf180mcu_fd_sc_mcu7t5v0__fillcap_64
XFILLER_32_456 vdd vss gf180mcu_fd_sc_mcu7t5v0__fillcap_4
XFILLER_59_2 vdd vss gf180mcu_fd_sc_mcu7t5v0__fillcap_64
XANTENNA__099__I _047_ vdd vss gf180mcu_fd_sc_mcu7t5v0__antenna
XFILLER_27_239 vdd vss gf180mcu_fd_sc_mcu7t5v0__fillcap_4
XFILLER_35_283 vdd vss gf180mcu_fd_sc_mcu7t5v0__fill_1
XFILLER_61_507 vdd vss gf180mcu_fd_sc_mcu7t5v0__fill_2
XFILLER_26_250 vdd vss gf180mcu_fd_sc_mcu7t5v0__fill_1
XFILLER_26_261 vdd vss gf180mcu_fd_sc_mcu7t5v0__fill_1
XFILLER_41_286 vdd vss gf180mcu_fd_sc_mcu7t5v0__fillcap_64
XFILLER_52_507 vdd vss gf180mcu_fd_sc_mcu7t5v0__fill_2
XFILLER_64_389 vdd vss gf180mcu_fd_sc_mcu7t5v0__fill_1
XFILLER_17_283 vdd vss gf180mcu_fd_sc_mcu7t5v0__fill_1
XFILLER_20_426 vdd vss gf180mcu_fd_sc_mcu7t5v0__fillcap_32
XFILLER_43_507 vdd vss gf180mcu_fd_sc_mcu7t5v0__fill_2
XFILLER_7_419 vdd vss gf180mcu_fd_sc_mcu7t5v0__fillcap_4
XFILLER_23_264 vdd vss gf180mcu_fd_sc_mcu7t5v0__fill_2
XFILLER_23_286 vdd vss gf180mcu_fd_sc_mcu7t5v0__fill_1
XFILLER_2_179 vdd vss gf180mcu_fd_sc_mcu7t5v0__fillcap_64
XFILLER_58_172 vdd vss gf180mcu_fd_sc_mcu7t5v0__fillcap_4
XFILLER_34_507 vdd vss gf180mcu_fd_sc_mcu7t5v0__fill_2
XFILLER_46_389 vdd vss gf180mcu_fd_sc_mcu7t5v0__fill_1
XFILLER_6_463 vdd vss gf180mcu_fd_sc_mcu7t5v0__fillcap_8
XANTENNA__135__C net1 vdd vss gf180mcu_fd_sc_mcu7t5v0__antenna
XFILLER_25_507 vdd vss gf180mcu_fd_sc_mcu7t5v0__fill_2
XFILLER_60_392 vdd vss gf180mcu_fd_sc_mcu7t5v0__fillcap_64
XFILLER_18_34 vdd vss gf180mcu_fd_sc_mcu7t5v0__fill_1
XFILLER_28_312 vdd vss gf180mcu_fd_sc_mcu7t5v0__fillcap_4
XFILLER_11_212 vdd vss gf180mcu_fd_sc_mcu7t5v0__fill_1
XFILLER_28_389 vdd vss gf180mcu_fd_sc_mcu7t5v0__fill_1
XANTENNA__138__A2 _062_ vdd vss gf180mcu_fd_sc_mcu7t5v0__antenna
X_111_ _038_ _031_ _054_ _059_ vdd vss gf180mcu_fd_sc_mcu7t5v0__nor3_1
XFILLER_3_499 vdd vss gf180mcu_fd_sc_mcu7t5v0__fill_1
XFILLER_3_466 vdd vss gf180mcu_fd_sc_mcu7t5v0__fill_1
XFILLER_3_422 vdd vss gf180mcu_fd_sc_mcu7t5v0__fill_1
XFILLER_59_492 vdd vss gf180mcu_fd_sc_mcu7t5v0__fillcap_4
XFILLER_19_312 vdd vss gf180mcu_fd_sc_mcu7t5v0__fillcap_8
XFILLER_19_378 vdd vss gf180mcu_fd_sc_mcu7t5v0__fillcap_32
XFILLER_42_392 vdd vss gf180mcu_fd_sc_mcu7t5v0__fillcap_64
XFILLER_41_2 vdd vss gf180mcu_fd_sc_mcu7t5v0__fillcap_64
XFILLER_65_495 vdd vss gf180mcu_fd_sc_mcu7t5v0__fill_2
XFILLER_52_101 vdd vss gf180mcu_fd_sc_mcu7t5v0__fillcap_4
XFILLER_40_318 vdd vss gf180mcu_fd_sc_mcu7t5v0__fill_1
XFILLER_1_70 vdd vss gf180mcu_fd_sc_mcu7t5v0__fill_1
XFILLER_25_337 vdd vss gf180mcu_fd_sc_mcu7t5v0__fill_2
XFILLER_25_326 vdd vss gf180mcu_fd_sc_mcu7t5v0__fill_1
XFILLER_0_403 vdd vss gf180mcu_fd_sc_mcu7t5v0__fillcap_8
XFILLER_56_495 vdd vss gf180mcu_fd_sc_mcu7t5v0__fillcap_8
XFILLER_16_337 vdd vss gf180mcu_fd_sc_mcu7t5v0__fillcap_4
XFILLER_29_66 vdd vss gf180mcu_fd_sc_mcu7t5v0__fillcap_4
XFILLER_24_381 vdd vss gf180mcu_fd_sc_mcu7t5v0__fillcap_8
XFILLER_24_392 vdd vss gf180mcu_fd_sc_mcu7t5v0__fillcap_64
XFILLER_6_37 vdd vss gf180mcu_fd_sc_mcu7t5v0__fillcap_64
XTAP_307 vdd vss gf180mcu_fd_sc_mcu7t5v0__filltie
XTAP_318 vdd vss gf180mcu_fd_sc_mcu7t5v0__filltie
XTAP_329 vdd vss gf180mcu_fd_sc_mcu7t5v0__filltie
XFILLER_34_101 vdd vss gf180mcu_fd_sc_mcu7t5v0__fillcap_4
XFILLER_22_307 vdd vss gf180mcu_fd_sc_mcu7t5v0__fill_1
XFILLER_22_318 vdd vss gf180mcu_fd_sc_mcu7t5v0__fill_1
XFILLER_57_215 vdd vss gf180mcu_fd_sc_mcu7t5v0__fillcap_64
XFILLER_53_421 vdd vss gf180mcu_fd_sc_mcu7t5v0__fillcap_4
XFILLER_38_495 vdd vss gf180mcu_fd_sc_mcu7t5v0__fillcap_8
XFILLER_13_318 vdd vss gf180mcu_fd_sc_mcu7t5v0__fill_2
XFILLER_21_373 vdd vss gf180mcu_fd_sc_mcu7t5v0__fillcap_4
Xoutput12 net12 sel[5] vdd vss gf180mcu_fd_sc_mcu7t5v0__clkbuf_3
XFILLER_16_101 vdd vss gf180mcu_fd_sc_mcu7t5v0__fillcap_4
XFILLER_31_137 vdd vss gf180mcu_fd_sc_mcu7t5v0__fillcap_4
XTAP_148 vdd vss gf180mcu_fd_sc_mcu7t5v0__filltie
XTAP_137 vdd vss gf180mcu_fd_sc_mcu7t5v0__filltie
XFILLER_39_215 vdd vss gf180mcu_fd_sc_mcu7t5v0__fillcap_64
XFILLER_35_421 vdd vss gf180mcu_fd_sc_mcu7t5v0__fillcap_4
XTAP_159 vdd vss gf180mcu_fd_sc_mcu7t5v0__filltie
XFILLER_26_34 vdd vss gf180mcu_fd_sc_mcu7t5v0__fill_1
XFILLER_13_137 vdd vss gf180mcu_fd_sc_mcu7t5v0__fillcap_4
XANTENNA__156__CLK clknet_1_1__leaf_clk vdd vss gf180mcu_fd_sc_mcu7t5v0__antenna
XFILLER_67_387 vdd vss gf180mcu_fd_sc_mcu7t5v0__fillcap_32
XFILLER_67_354 vdd vss gf180mcu_fd_sc_mcu7t5v0__fill_1
XFILLER_50_243 vdd vss gf180mcu_fd_sc_mcu7t5v0__fillcap_4
XFILLER_23_424 vdd vss gf180mcu_fd_sc_mcu7t5v0__fill_2
XFILLER_58_321 vdd vss gf180mcu_fd_sc_mcu7t5v0__fillcap_64
XTAP_490 vdd vss gf180mcu_fd_sc_mcu7t5v0__filltie
XFILLER_37_66 vdd vss gf180mcu_fd_sc_mcu7t5v0__fillcap_4
XANTENNA__101__B1 _052_ vdd vss gf180mcu_fd_sc_mcu7t5v0__antenna
XFILLER_14_424 vdd vss gf180mcu_fd_sc_mcu7t5v0__fill_2
XFILLER_5_144 vdd vss gf180mcu_fd_sc_mcu7t5v0__fillcap_64
XFILLER_1_350 vdd vss gf180mcu_fd_sc_mcu7t5v0__fillcap_4
XFILLER_49_354 vdd vss gf180mcu_fd_sc_mcu7t5v0__fill_1
XFILLER_32_243 vdd vss gf180mcu_fd_sc_mcu7t5v0__fillcap_4
XFILLER_9_494 vdd vss gf180mcu_fd_sc_mcu7t5v0__fill_2
XFILLER_55_357 vdd vss gf180mcu_fd_sc_mcu7t5v0__fillcap_64
XFILLER_11_416 vdd vss gf180mcu_fd_sc_mcu7t5v0__fillcap_8
XFILLER_23_276 vdd vss gf180mcu_fd_sc_mcu7t5v0__fill_2
XFILLER_0_17 vdd vss gf180mcu_fd_sc_mcu7t5v0__fill_2
XFILLER_14_243 vdd vss gf180mcu_fd_sc_mcu7t5v0__fillcap_4
XFILLER_14_298 vdd vss gf180mcu_fd_sc_mcu7t5v0__fillcap_8
XFILLER_6_442 vdd vss gf180mcu_fd_sc_mcu7t5v0__fill_2
XFILLER_10_460 vdd vss gf180mcu_fd_sc_mcu7t5v0__fill_1
XFILLER_10_493 vdd vss gf180mcu_fd_sc_mcu7t5v0__fill_2
XFILLER_64_176 vdd vss gf180mcu_fd_sc_mcu7t5v0__fill_1
XFILLER_37_357 vdd vss gf180mcu_fd_sc_mcu7t5v0__fillcap_64
XFILLER_16_508 vdd vss gf180mcu_fd_sc_mcu7t5v0__fill_1
XFILLER_34_34 vdd vss gf180mcu_fd_sc_mcu7t5v0__fill_1
X_110_ net9 _058_ vdd vss gf180mcu_fd_sc_mcu7t5v0__clkinv_1
XFILLER_11_279 vdd vss gf180mcu_fd_sc_mcu7t5v0__fillcap_4
XFILLER_1_2 vdd vss gf180mcu_fd_sc_mcu7t5v0__fillcap_64
XFILLER_46_176 vdd vss gf180mcu_fd_sc_mcu7t5v0__fill_1
XFILLER_19_335 vdd vss gf180mcu_fd_sc_mcu7t5v0__fillcap_16
XFILLER_19_324 vdd vss gf180mcu_fd_sc_mcu7t5v0__fill_1
XFILLER_19_357 vdd vss gf180mcu_fd_sc_mcu7t5v0__fill_1
XFILLER_34_2 vdd vss gf180mcu_fd_sc_mcu7t5v0__fillcap_32
XFILLER_6_250 vdd vss gf180mcu_fd_sc_mcu7t5v0__fillcap_64
XFILLER_52_179 vdd vss gf180mcu_fd_sc_mcu7t5v0__fillcap_64
XFILLER_25_349 vdd vss gf180mcu_fd_sc_mcu7t5v0__fillcap_4
XFILLER_0_459 vdd vss gf180mcu_fd_sc_mcu7t5v0__fill_1
XFILLER_0_415 vdd vss gf180mcu_fd_sc_mcu7t5v0__fill_2
XFILLER_56_463 vdd vss gf180mcu_fd_sc_mcu7t5v0__fillcap_32
XFILLER_45_66 vdd vss gf180mcu_fd_sc_mcu7t5v0__fillcap_4
XFILLER_16_305 vdd vss gf180mcu_fd_sc_mcu7t5v0__fillcap_4
XFILLER_28_176 vdd vss gf180mcu_fd_sc_mcu7t5v0__fill_1
XANTENNA_output10_I net10 vdd vss gf180mcu_fd_sc_mcu7t5v0__antenna
XFILLER_3_286 vdd vss gf180mcu_fd_sc_mcu7t5v0__fillcap_64
XTAP_308 vdd vss gf180mcu_fd_sc_mcu7t5v0__filltie
XTAP_319 vdd vss gf180mcu_fd_sc_mcu7t5v0__filltie
XFILLER_47_496 vdd vss gf180mcu_fd_sc_mcu7t5v0__fill_1
XFILLER_34_179 vdd vss gf180mcu_fd_sc_mcu7t5v0__fillcap_64
XFILLER_30_385 vdd vss gf180mcu_fd_sc_mcu7t5v0__fillcap_4
XFILLER_38_463 vdd vss gf180mcu_fd_sc_mcu7t5v0__fillcap_32
XFILLER_53_499 vdd vss gf180mcu_fd_sc_mcu7t5v0__fillcap_8
XFILLER_40_105 vdd vss gf180mcu_fd_sc_mcu7t5v0__fill_1
XFILLER_21_352 vdd vss gf180mcu_fd_sc_mcu7t5v0__fill_2
XFILLER_5_507 vdd vss gf180mcu_fd_sc_mcu7t5v0__fill_2
Xoutput13 net13 sel[6] vdd vss gf180mcu_fd_sc_mcu7t5v0__clkbuf_3
XFILLER_0_212 vdd vss gf180mcu_fd_sc_mcu7t5v0__fill_1
XFILLER_63_208 vdd vss gf180mcu_fd_sc_mcu7t5v0__fillcap_4
XPHY_130 vdd vss gf180mcu_fd_sc_mcu7t5v0__endcap
XFILLER_29_496 vdd vss gf180mcu_fd_sc_mcu7t5v0__fill_1
XFILLER_16_179 vdd vss gf180mcu_fd_sc_mcu7t5v0__fillcap_64
XFILLER_8_389 vdd vss gf180mcu_fd_sc_mcu7t5v0__fill_1
XTAP_149 vdd vss gf180mcu_fd_sc_mcu7t5v0__filltie
XTAP_138 vdd vss gf180mcu_fd_sc_mcu7t5v0__filltie
XFILLER_35_499 vdd vss gf180mcu_fd_sc_mcu7t5v0__fillcap_8
XFILLER_22_105 vdd vss gf180mcu_fd_sc_mcu7t5v0__fill_1
XFILLER_7_70 vdd vss gf180mcu_fd_sc_mcu7t5v0__fill_1
XFILLER_58_503 vdd vss gf180mcu_fd_sc_mcu7t5v0__fillcap_4
XFILLER_45_208 vdd vss gf180mcu_fd_sc_mcu7t5v0__fillcap_4
XFILLER_41_425 vdd vss gf180mcu_fd_sc_mcu7t5v0__fill_1
XFILLER_42_34 vdd vss gf180mcu_fd_sc_mcu7t5v0__fill_1
XFILLER_67_31 vdd vss gf180mcu_fd_sc_mcu7t5v0__fillcap_4
XFILLER_17_444 vdd vss gf180mcu_fd_sc_mcu7t5v0__fillcap_8
XFILLER_17_499 vdd vss gf180mcu_fd_sc_mcu7t5v0__fillcap_8
XFILLER_4_392 vdd vss gf180mcu_fd_sc_mcu7t5v0__fillcap_32
XFILLER_27_208 vdd vss gf180mcu_fd_sc_mcu7t5v0__fillcap_4
XFILLER_10_108 vdd vss gf180mcu_fd_sc_mcu7t5v0__fillcap_64
XFILLER_12_37 vdd vss gf180mcu_fd_sc_mcu7t5v0__fillcap_64
XFILLER_2_318 vdd vss gf180mcu_fd_sc_mcu7t5v0__fill_1
XTAP_491 vdd vss gf180mcu_fd_sc_mcu7t5v0__filltie
XTAP_480 vdd vss gf180mcu_fd_sc_mcu7t5v0__filltie
XANTENNA__101__B2 _046_ vdd vss gf180mcu_fd_sc_mcu7t5v0__antenna
XFILLER_53_66 vdd vss gf180mcu_fd_sc_mcu7t5v0__fillcap_4
XFILLER_26_296 vdd vss gf180mcu_fd_sc_mcu7t5v0__fillcap_4
XFILLER_64_314 vdd vss gf180mcu_fd_sc_mcu7t5v0__fillcap_4
XFILLER_64_2 vdd vss gf180mcu_fd_sc_mcu7t5v0__fillcap_32
XFILLER_67_174 vdd vss gf180mcu_fd_sc_mcu7t5v0__fill_1
XFILLER_11_428 vdd vss gf180mcu_fd_sc_mcu7t5v0__fillcap_16
XFILLER_23_255 vdd vss gf180mcu_fd_sc_mcu7t5v0__fill_2
XFILLER_23_299 vdd vss gf180mcu_fd_sc_mcu7t5v0__fill_2
XFILLER_46_314 vdd vss gf180mcu_fd_sc_mcu7t5v0__fillcap_4
XFILLER_0_29 vdd vss gf180mcu_fd_sc_mcu7t5v0__fillcap_4
XFILLER_6_454 vdd vss gf180mcu_fd_sc_mcu7t5v0__fillcap_4
XFILLER_49_141 vdd vss gf180mcu_fd_sc_mcu7t5v0__fill_1
XFILLER_20_247 vdd vss gf180mcu_fd_sc_mcu7t5v0__fill_1
XFILLER_20_258 vdd vss gf180mcu_fd_sc_mcu7t5v0__fill_2
XFILLER_55_144 vdd vss gf180mcu_fd_sc_mcu7t5v0__fillcap_64
XFILLER_51_350 vdd vss gf180mcu_fd_sc_mcu7t5v0__fillcap_4
XANTENNA__169__CLK clknet_1_0__leaf_clk vdd vss gf180mcu_fd_sc_mcu7t5v0__antenna
XFILLER_50_34 vdd vss gf180mcu_fd_sc_mcu7t5v0__fill_1
X_169_ _017_ clknet_1_0__leaf_clk dut.count\[2\] vdd vss gf180mcu_fd_sc_mcu7t5v0__dffq_1
XFILLER_27_2 vdd vss gf180mcu_fd_sc_mcu7t5v0__fillcap_64
XFILLER_37_144 vdd vss gf180mcu_fd_sc_mcu7t5v0__fillcap_64
XFILLER_25_306 vdd vss gf180mcu_fd_sc_mcu7t5v0__fill_2
XFILLER_33_350 vdd vss gf180mcu_fd_sc_mcu7t5v0__fillcap_4
Xposoco2000_17 segm[0] vdd vss gf180mcu_fd_sc_mcu7t5v0__tiel
XFILLER_20_37 vdd vss gf180mcu_fd_sc_mcu7t5v0__fillcap_64
XFILLER_61_66 vdd vss gf180mcu_fd_sc_mcu7t5v0__fillcap_4
XTAP_309 vdd vss gf180mcu_fd_sc_mcu7t5v0__filltie
XFILLER_19_144 vdd vss gf180mcu_fd_sc_mcu7t5v0__fillcap_64
XFILLER_62_456 vdd vss gf180mcu_fd_sc_mcu7t5v0__fillcap_4
XFILLER_65_283 vdd vss gf180mcu_fd_sc_mcu7t5v0__fill_1
Xoutput14 net14 sel[7] vdd vss gf180mcu_fd_sc_mcu7t5v0__clkbuf_3
XFILLER_56_250 vdd vss gf180mcu_fd_sc_mcu7t5v0__fillcap_64
XFILLER_0_279 vdd vss gf180mcu_fd_sc_mcu7t5v0__fill_1
XANTENNA__102__I net11 vdd vss gf180mcu_fd_sc_mcu7t5v0__antenna
XPHY_131 vdd vss gf180mcu_fd_sc_mcu7t5v0__endcap
XPHY_120 vdd vss gf180mcu_fd_sc_mcu7t5v0__endcap
XFILLER_44_456 vdd vss gf180mcu_fd_sc_mcu7t5v0__fillcap_4
XFILLER_12_364 vdd vss gf180mcu_fd_sc_mcu7t5v0__fillcap_16
XTAP_139 vdd vss gf180mcu_fd_sc_mcu7t5v0__filltie
XFILLER_47_283 vdd vss gf180mcu_fd_sc_mcu7t5v0__fill_1
XPHY_0 vdd vss gf180mcu_fd_sc_mcu7t5v0__endcap
XFILLER_30_172 vdd vss gf180mcu_fd_sc_mcu7t5v0__fillcap_4
XFILLER_38_250 vdd vss gf180mcu_fd_sc_mcu7t5v0__fillcap_64
XFILLER_53_286 vdd vss gf180mcu_fd_sc_mcu7t5v0__fillcap_64