*SPEF "ieee 1481-1999"
*DESIGN "posoco2000"
*DATE "11:11:11 Fri 11 11, 1111"
*VENDOR "OpenRCX"
*PROGRAM "Parallel Extraction"
*VERSION "1.0"
*DESIGN_FLOW "NAME_SCOPE LOCAL" "PIN_CAP NONE"
*DIVIDER /
*DELIMITER :
*BUS_DELIMITER []
*T_UNIT 1 NS
*C_UNIT 1 PF
*R_UNIT 1 OHM
*L_UNIT 1 HENRY

*NAME_MAP
*1 clk
*2 net17
*3 segm[1]
*4 segm[2]
*5 segm[3]
*6 segm[4]
*7 segm[5]
*8 segm[6]
*9 net18
*10 sel[0]
*11 sel[1]
*12 sel[2]
*13 sel[3]
*14 sel[4]
*15 sel[5]
*16 sel[6]
*17 sel[7]
*18 sel[8]
*19 sel[9]
*22 _000_
*23 _001_
*24 _002_
*25 _003_
*26 _004_
*27 _005_
*28 _006_
*29 _007_
*30 _008_
*31 _009_
*32 _010_
*33 _011_
*34 _012_
*35 _013_
*36 _014_
*37 _015_
*38 _016_
*39 _017_
*40 _018_
*41 _019_
*42 _020_
*43 _021_
*44 _022_
*45 _023_
*46 _024_
*47 _025_
*48 _026_
*49 _027_
*50 _028_
*51 _029_
*52 _030_
*53 _031_
*54 _032_
*55 _033_
*56 _034_
*57 _035_
*58 _036_
*59 _037_
*60 _038_
*61 _039_
*62 _040_
*63 _041_
*64 _042_
*65 _043_
*66 _044_
*67 _045_
*68 _046_
*69 _047_
*70 _048_
*71 _049_
*72 _050_
*73 _051_
*74 _052_
*75 _053_
*76 _054_
*77 _055_
*78 _056_
*79 _057_
*80 _058_
*81 _059_
*82 _060_
*83 _061_
*84 _062_
*85 _063_
*86 _064_
*87 _065_
*88 _066_
*89 _067_
*90 _068_
*91 _069_
*92 _070_
*93 _071_
*94 _072_
*95 _073_
*96 _074_
*97 _075_
*98 clknet_0_clk
*99 clknet_1_0__leaf_clk
*100 clknet_1_1__leaf_clk
*101 dut\.count\[0\]
*102 dut\.count\[1\]
*103 dut\.count\[2\]
*104 dut\.count\[3\]
*105 net1
*106 net10
*107 net11
*108 net12
*109 net13
*110 net14
*111 net15
*112 net16
*113 net2
*114 net3
*115 net4
*116 net5
*117 net6
*118 net7
*119 net8
*120 net9
*121 ANTENNA__076__I
*122 ANTENNA__077__I
*123 ANTENNA__079__I
*124 ANTENNA__081__I
*125 ANTENNA__082__A1
*126 ANTENNA__082__B
*127 ANTENNA__083__I
*128 ANTENNA__084__I
*129 ANTENNA__085__A1
*130 ANTENNA__085__A2
*131 ANTENNA__085__A3
*132 ANTENNA__087__A1
*133 ANTENNA__087__B
*134 ANTENNA__088__I
*135 ANTENNA__092__I
*136 ANTENNA__094__A1
*137 ANTENNA__094__A2
*138 ANTENNA__094__B
*139 ANTENNA__095__I
*140 ANTENNA__096__I
*141 ANTENNA__097__A1
*142 ANTENNA__097__A2
*143 ANTENNA__097__A3
*144 ANTENNA__097__B1
*145 ANTENNA__098__I
*146 ANTENNA__099__I
*147 ANTENNA__100__A2
*148 ANTENNA__101__A2
*149 ANTENNA__101__B1
*150 ANTENNA__101__B2
*151 ANTENNA__102__I
*152 ANTENNA__103__A1
*153 ANTENNA__103__A2
*154 ANTENNA__103__A3
*155 ANTENNA__103__B1
*156 ANTENNA__104__I
*157 ANTENNA__105__I
*158 ANTENNA__106__A1
*159 ANTENNA__108__I
*160 ANTENNA__109__A1
*161 ANTENNA__109__A2
*162 ANTENNA__109__A3
*163 ANTENNA__109__B1
*164 ANTENNA__110__I
*165 ANTENNA__111__A1
*166 ANTENNA__113__A2
*167 ANTENNA__113__B2
*168 ANTENNA__114__I
*169 ANTENNA__115__A2
*170 ANTENNA__115__B1
*171 ANTENNA__115__B2
*172 ANTENNA__116__I
*173 ANTENNA__117__I
*174 ANTENNA__118__A1
*175 ANTENNA__118__A2
*176 ANTENNA__118__A3
*177 ANTENNA__118__B1
*178 ANTENNA__118__B2
*179 ANTENNA__119__I
*180 ANTENNA__120__A1
*181 ANTENNA__122__A1
*182 ANTENNA__122__B
*183 ANTENNA__126__A1
*184 ANTENNA__126__A2
*185 ANTENNA__126__B1
*186 ANTENNA__127__A1
*187 ANTENNA__127__A2
*188 ANTENNA__128__A1
*189 ANTENNA__129__I
*190 ANTENNA__130__A2
*191 ANTENNA__130__B2
*192 ANTENNA__131__I
*193 ANTENNA__133__A2
*194 ANTENNA__133__B
*195 ANTENNA__135__B
*196 ANTENNA__135__C
*197 ANTENNA__137__A2
*198 ANTENNA__138__A1
*199 ANTENNA__138__A2
*200 ANTENNA__139__I
*201 ANTENNA__140__A1
*202 ANTENNA__141__A1
*203 ANTENNA__141__A2
*204 ANTENNA__142__A1
*205 ANTENNA__142__B2
*206 ANTENNA__143__A1
*207 ANTENNA__144__A1
*208 ANTENNA__144__B
*209 ANTENNA__146__I
*210 ANTENNA__147__A1
*211 ANTENNA__148__A2
*212 ANTENNA__149__I
*213 ANTENNA__150__A2
*214 ANTENNA__150__A3
*215 ANTENNA__150__B1
*216 ANTENNA__150__B2
*217 ANTENNA__151__I
*218 ANTENNA__152__CLK
*219 ANTENNA__152__D
*220 ANTENNA__153__CLK
*221 ANTENNA__153__D
*222 ANTENNA__154__CLK
*223 ANTENNA__154__D
*224 ANTENNA__155__CLK
*225 ANTENNA__155__D
*226 ANTENNA__156__CLK
*227 ANTENNA__156__D
*228 ANTENNA__157__CLK
*229 ANTENNA__157__D
*230 ANTENNA__158__CLK
*231 ANTENNA__158__D
*232 ANTENNA__159__CLK
*233 ANTENNA__159__D
*234 ANTENNA__160__CLK
*235 ANTENNA__160__D
*236 ANTENNA__161__CLK
*237 ANTENNA__161__D
*238 ANTENNA__162__CLK
*239 ANTENNA__162__D
*240 ANTENNA__163__CLK
*241 ANTENNA__163__D
*242 ANTENNA__164__CLK
*243 ANTENNA__164__D
*244 ANTENNA__165__CLK
*245 ANTENNA__165__D
*246 ANTENNA__166__CLK
*247 ANTENNA__166__D
*248 ANTENNA__167__CLK
*249 ANTENNA__167__D
*250 ANTENNA__168__CLK
*251 ANTENNA__168__D
*252 ANTENNA__169__CLK
*253 ANTENNA__170__CLK
*254 ANTENNA__171__CLK
*255 ANTENNA__171__D
*256 ANTENNA_clkbuf_0_clk_I
*257 ANTENNA_output10_I
*258 ANTENNA_output11_I
*259 ANTENNA_output12_I
*260 ANTENNA_output13_I
*261 ANTENNA_output14_I
*262 ANTENNA_output15_I
*263 ANTENNA_output16_I
*264 ANTENNA_output1_I
*265 ANTENNA_output2_I
*266 ANTENNA_output3_I
*267 ANTENNA_output4_I
*268 ANTENNA_output5_I
*269 ANTENNA_output6_I
*270 ANTENNA_output7_I
*271 ANTENNA_output8_I
*272 ANTENNA_output9_I
*273 FILLER_0_104
*274 FILLER_0_107
*275 FILLER_0_110
*276 FILLER_0_126
*277 FILLER_0_134
*278 FILLER_0_138
*279 FILLER_0_142
*280 FILLER_0_17
*281 FILLER_0_174
*282 FILLER_0_177
*283 FILLER_0_2
*284 FILLER_0_209
*285 FILLER_0_21
*286 FILLER_0_212
*287 FILLER_0_227
*288 FILLER_0_231
*289 FILLER_0_239
*290 FILLER_0_243
*291 FILLER_0_247
*292 FILLER_0_279
*293 FILLER_0_282
*294 FILLER_0_29
*295 FILLER_0_314
*296 FILLER_0_317
*297 FILLER_0_33
*298 FILLER_0_339
*299 FILLER_0_343
*300 FILLER_0_347
*301 FILLER_0_349
*302 FILLER_0_352
*303 FILLER_0_37
*304 FILLER_0_384
*305 FILLER_0_387
*306 FILLER_0_403
*307 FILLER_0_411
*308 FILLER_0_415
*309 FILLER_0_419
*310 FILLER_0_422
*311 FILLER_0_424
*312 FILLER_0_454
*313 FILLER_0_457
*314 FILLER_0_459
*315 FILLER_0_489
*316 FILLER_0_492
*317 FILLER_0_507
*318 FILLER_0_69
*319 FILLER_0_72
*320 FILLER_0_88
*321 FILLER_10_101
*322 FILLER_10_105
*323 FILLER_10_108
*324 FILLER_10_172
*325 FILLER_10_176
*326 FILLER_10_179
*327 FILLER_10_2
*328 FILLER_10_243
*329 FILLER_10_247
*330 FILLER_10_250
*331 FILLER_10_314
*332 FILLER_10_318
*333 FILLER_10_321
*334 FILLER_10_34
*335 FILLER_10_37
*336 FILLER_10_385
*337 FILLER_10_389
*338 FILLER_10_392
*339 FILLER_10_408
*340 FILLER_10_438
*341 FILLER_10_442
*342 FILLER_10_460
*343 FILLER_10_463
*344 FILLER_10_493
*345 FILLER_10_497
*346 FILLER_10_505
*347 FILLER_11_137
*348 FILLER_11_141
*349 FILLER_11_144
*350 FILLER_11_2
*351 FILLER_11_208
*352 FILLER_11_212
*353 FILLER_11_215
*354 FILLER_11_279
*355 FILLER_11_283
*356 FILLER_11_286
*357 FILLER_11_350
*358 FILLER_11_354
*359 FILLER_11_357
*360 FILLER_11_389
*361 FILLER_11_391
*362 FILLER_11_396
*363 FILLER_11_400
*364 FILLER_11_416
*365 FILLER_11_424
*366 FILLER_11_428
*367 FILLER_11_444
*368 FILLER_11_496
*369 FILLER_11_499
*370 FILLER_11_507
*371 FILLER_11_66
*372 FILLER_11_70
*373 FILLER_11_73
*374 FILLER_12_101
*375 FILLER_12_105
*376 FILLER_12_108
*377 FILLER_12_17
*378 FILLER_12_172
*379 FILLER_12_176
*380 FILLER_12_179
*381 FILLER_12_2
*382 FILLER_12_21
*383 FILLER_12_243
*384 FILLER_12_247
*385 FILLER_12_250
*386 FILLER_12_29
*387 FILLER_12_314
*388 FILLER_12_318
*389 FILLER_12_321
*390 FILLER_12_323
*391 FILLER_12_328
*392 FILLER_12_33
*393 FILLER_12_332
*394 FILLER_12_364
*395 FILLER_12_37
*396 FILLER_12_380
*397 FILLER_12_388
*398 FILLER_12_392
*399 FILLER_12_410
*400 FILLER_12_441
*401 FILLER_12_445
*402 FILLER_12_463
*403 FILLER_12_473
*404 FILLER_12_504
*405 FILLER_12_508
*406 FILLER_13_137
*407 FILLER_13_141
*408 FILLER_13_144
*409 FILLER_13_2
*410 FILLER_13_208
*411 FILLER_13_212
*412 FILLER_13_215
*413 FILLER_13_279
*414 FILLER_13_283
*415 FILLER_13_286
*416 FILLER_13_318
*417 FILLER_13_322
*418 FILLER_13_330
*419 FILLER_13_334
*420 FILLER_13_337
*421 FILLER_13_341
*422 FILLER_13_349
*423 FILLER_13_353
*424 FILLER_13_357
*425 FILLER_13_421
*426 FILLER_13_425
*427 FILLER_13_428
*428 FILLER_13_458
*429 FILLER_13_462
*430 FILLER_13_494
*431 FILLER_13_496
*432 FILLER_13_499
*433 FILLER_13_507
*434 FILLER_13_66
*435 FILLER_13_70
*436 FILLER_13_73
*437 FILLER_14_101
*438 FILLER_14_105
*439 FILLER_14_108
*440 FILLER_14_172
*441 FILLER_14_176
*442 FILLER_14_179
*443 FILLER_14_2
*444 FILLER_14_243
*445 FILLER_14_247
*446 FILLER_14_250
*447 FILLER_14_282
*448 FILLER_14_298
*449 FILLER_14_306
*450 FILLER_14_310
*451 FILLER_14_314
*452 FILLER_14_318
*453 FILLER_14_321
*454 FILLER_14_334
*455 FILLER_14_338
*456 FILLER_14_34
*457 FILLER_14_340
*458 FILLER_14_351
*459 FILLER_14_37
*460 FILLER_14_383
*461 FILLER_14_387
*462 FILLER_14_389
*463 FILLER_14_392
*464 FILLER_14_424
*465 FILLER_14_426
*466 FILLER_14_429
*467 FILLER_14_460
*468 FILLER_14_463
*469 FILLER_14_466
*470 FILLER_14_470
*471 FILLER_14_473
*472 FILLER_14_477
*473 FILLER_14_508
*474 FILLER_15_137
*475 FILLER_15_141
*476 FILLER_15_144
*477 FILLER_15_2
*478 FILLER_15_208
*479 FILLER_15_212
*480 FILLER_15_215
*481 FILLER_15_279
*482 FILLER_15_283
*483 FILLER_15_286
*484 FILLER_15_318
*485 FILLER_15_320
*486 FILLER_15_323
*487 FILLER_15_331
*488 FILLER_15_335
*489 FILLER_15_339
*490 FILLER_15_347
*491 FILLER_15_351
*492 FILLER_15_354
*493 FILLER_15_357
*494 FILLER_15_421
*495 FILLER_15_425
*496 FILLER_15_428
*497 FILLER_15_492
*498 FILLER_15_496
*499 FILLER_15_499
*500 FILLER_15_507
*501 FILLER_15_66
*502 FILLER_15_70
*503 FILLER_15_73
*504 FILLER_16_101
*505 FILLER_16_105
*506 FILLER_16_108
*507 FILLER_16_172
*508 FILLER_16_176
*509 FILLER_16_179
*510 FILLER_16_2
*511 FILLER_16_243
*512 FILLER_16_247
*513 FILLER_16_250
*514 FILLER_16_282
*515 FILLER_16_290
*516 FILLER_16_293
*517 FILLER_16_297
*518 FILLER_16_305
*519 FILLER_16_309
*520 FILLER_16_311
*521 FILLER_16_314
*522 FILLER_16_318
*523 FILLER_16_321
*524 FILLER_16_337
*525 FILLER_16_34
*526 FILLER_16_341
*527 FILLER_16_343
*528 FILLER_16_346
*529 FILLER_16_350
*530 FILLER_16_354
*531 FILLER_16_368
*532 FILLER_16_37
*533 FILLER_16_372
*534 FILLER_16_388
*535 FILLER_16_392
*536 FILLER_16_456
*537 FILLER_16_460
*538 FILLER_16_463
*539 FILLER_16_495
*540 FILLER_16_503
*541 FILLER_16_508
*542 FILLER_17_137
*543 FILLER_17_141
*544 FILLER_17_144
*545 FILLER_17_2
*546 FILLER_17_208
*547 FILLER_17_212
*548 FILLER_17_215
*549 FILLER_17_279
*550 FILLER_17_283
*551 FILLER_17_286
*552 FILLER_17_293
*553 FILLER_17_307
*554 FILLER_17_311
*555 FILLER_17_315
*556 FILLER_17_319
*557 FILLER_17_322
*558 FILLER_17_326
*559 FILLER_17_342
*560 FILLER_17_350
*561 FILLER_17_354
*562 FILLER_17_357
*563 FILLER_17_373
*564 FILLER_17_381
*565 FILLER_17_385
*566 FILLER_17_388
*567 FILLER_17_392
*568 FILLER_17_402
*569 FILLER_17_418
*570 FILLER_17_428
*571 FILLER_17_444
*572 FILLER_17_452
*573 FILLER_17_458
*574 FILLER_17_462
*575 FILLER_17_494
*576 FILLER_17_496
*577 FILLER_17_499
*578 FILLER_17_507
*579 FILLER_17_66
*580 FILLER_17_70
*581 FILLER_17_73
*582 FILLER_18_101
*583 FILLER_18_105
*584 FILLER_18_108
*585 FILLER_18_172
*586 FILLER_18_176
*587 FILLER_18_179
*588 FILLER_18_2
*589 FILLER_18_243
*590 FILLER_18_247
*591 FILLER_18_250
*592 FILLER_18_266
*593 FILLER_18_272
*594 FILLER_18_276
*595 FILLER_18_280
*596 FILLER_18_282
*597 FILLER_18_285
*598 FILLER_18_295
*599 FILLER_18_297
*600 FILLER_18_300
*601 FILLER_18_304
*602 FILLER_18_312
*603 FILLER_18_318
*604 FILLER_18_321
*605 FILLER_18_330
*606 FILLER_18_34
*607 FILLER_18_362
*608 FILLER_18_37
*609 FILLER_18_372
*610 FILLER_18_388
*611 FILLER_18_392
*612 FILLER_18_456
*613 FILLER_18_460
*614 FILLER_18_463
*615 FILLER_18_495
*616 FILLER_18_503
*617 FILLER_18_507
*618 FILLER_19_137
*619 FILLER_19_141
*620 FILLER_19_144
*621 FILLER_19_2
*622 FILLER_19_208
*623 FILLER_19_212
*624 FILLER_19_215
*625 FILLER_19_247
*626 FILLER_19_263
*627 FILLER_19_270
*628 FILLER_19_272
*629 FILLER_19_283
*630 FILLER_19_286
*631 FILLER_19_289
*632 FILLER_19_293
*633 FILLER_19_295
*634 FILLER_19_308
*635 FILLER_19_312
*636 FILLER_19_320
*637 FILLER_19_324
*638 FILLER_19_331
*639 FILLER_19_335
*640 FILLER_19_351
*641 FILLER_19_357
*642 FILLER_19_366
*643 FILLER_19_370
*644 FILLER_19_374
*645 FILLER_19_378
*646 FILLER_19_410
*647 FILLER_19_428
*648 FILLER_19_492
*649 FILLER_19_496
*650 FILLER_19_499
*651 FILLER_19_507
*652 FILLER_19_66
*653 FILLER_19_70
*654 FILLER_19_73
*655 FILLER_1_137
*656 FILLER_1_141
*657 FILLER_1_144
*658 FILLER_1_2
*659 FILLER_1_208
*660 FILLER_1_212
*661 FILLER_1_215
*662 FILLER_1_279
*663 FILLER_1_283
*664 FILLER_1_286
*665 FILLER_1_350
*666 FILLER_1_354
*667 FILLER_1_357
*668 FILLER_1_421
*669 FILLER_1_425
*670 FILLER_1_428
*671 FILLER_1_436
*672 FILLER_1_440
*673 FILLER_1_444
*674 FILLER_1_496
*675 FILLER_1_499
*676 FILLER_1_502
*677 FILLER_1_508
*678 FILLER_1_66
*679 FILLER_1_70
*680 FILLER_1_73
*681 FILLER_20_101
*682 FILLER_20_105
*683 FILLER_20_108
*684 FILLER_20_172
*685 FILLER_20_176
*686 FILLER_20_179
*687 FILLER_20_2
*688 FILLER_20_243
*689 FILLER_20_247
*690 FILLER_20_250
*691 FILLER_20_258
*692 FILLER_20_260
*693 FILLER_20_272
*694 FILLER_20_276
*695 FILLER_20_283
*696 FILLER_20_287
*697 FILLER_20_296
*698 FILLER_20_300
*699 FILLER_20_312
*700 FILLER_20_316
*701 FILLER_20_318
*702 FILLER_20_321
*703 FILLER_20_34
*704 FILLER_20_353
*705 FILLER_20_357
*706 FILLER_20_359
*707 FILLER_20_362
*708 FILLER_20_366
*709 FILLER_20_37
*710 FILLER_20_380
*711 FILLER_20_388
*712 FILLER_20_392
*713 FILLER_20_408
*714 FILLER_20_418
*715 FILLER_20_426
*716 FILLER_20_458
*717 FILLER_20_460
*718 FILLER_20_463
*719 FILLER_20_495
*720 FILLER_20_503
*721 FILLER_20_507
*722 FILLER_21_137
*723 FILLER_21_141
*724 FILLER_21_144
*725 FILLER_21_2
*726 FILLER_21_208
*727 FILLER_21_212
*728 FILLER_21_215
*729 FILLER_21_247
*730 FILLER_21_263
*731 FILLER_21_271
*732 FILLER_21_275
*733 FILLER_21_279
*734 FILLER_21_283
*735 FILLER_21_286
*736 FILLER_21_294
*737 FILLER_21_298
*738 FILLER_21_300
*739 FILLER_21_307
*740 FILLER_21_321
*741 FILLER_21_325
*742 FILLER_21_329
*743 FILLER_21_333
*744 FILLER_21_337
*745 FILLER_21_345
*746 FILLER_21_349
*747 FILLER_21_352
*748 FILLER_21_354
*749 FILLER_21_357
*750 FILLER_21_373
*751 FILLER_21_379
*752 FILLER_21_389
*753 FILLER_21_405
*754 FILLER_21_409
*755 FILLER_21_417
*756 FILLER_21_421
*757 FILLER_21_425
*758 FILLER_21_428
*759 FILLER_21_438
*760 FILLER_21_444
*761 FILLER_21_448
*762 FILLER_21_452
*763 FILLER_21_484
*764 FILLER_21_492
*765 FILLER_21_496
*766 FILLER_21_499
*767 FILLER_21_507
*768 FILLER_21_66
*769 FILLER_21_70
*770 FILLER_21_73
*771 FILLER_22_101
*772 FILLER_22_105
*773 FILLER_22_108
*774 FILLER_22_172
*775 FILLER_22_176
*776 FILLER_22_179
*777 FILLER_22_2
*778 FILLER_22_243
*779 FILLER_22_247
*780 FILLER_22_250
*781 FILLER_22_264
*782 FILLER_22_266
*783 FILLER_22_275
*784 FILLER_22_277
*785 FILLER_22_280
*786 FILLER_22_284
*787 FILLER_22_288
*788 FILLER_22_299
*789 FILLER_22_305
*790 FILLER_22_307
*791 FILLER_22_310
*792 FILLER_22_314
*793 FILLER_22_318
*794 FILLER_22_321
*795 FILLER_22_324
*796 FILLER_22_328
*797 FILLER_22_330
*798 FILLER_22_335
*799 FILLER_22_339
*800 FILLER_22_34
*801 FILLER_22_343
*802 FILLER_22_347
*803 FILLER_22_350
*804 FILLER_22_362
*805 FILLER_22_37
*806 FILLER_22_378
*807 FILLER_22_386
*808 FILLER_22_392
*809 FILLER_22_456
*810 FILLER_22_460
*811 FILLER_22_463
*812 FILLER_22_495
*813 FILLER_22_503
*814 FILLER_22_507
*815 FILLER_23_137
*816 FILLER_23_141
*817 FILLER_23_144
*818 FILLER_23_2
*819 FILLER_23_208
*820 FILLER_23_212
*821 FILLER_23_215
*822 FILLER_23_247
*823 FILLER_23_255
*824 FILLER_23_257
*825 FILLER_23_264
*826 FILLER_23_276
*827 FILLER_23_280
*828 FILLER_23_286
*829 FILLER_23_295
*830 FILLER_23_299
*831 FILLER_23_303
*832 FILLER_23_310
*833 FILLER_23_322
*834 FILLER_23_326
*835 FILLER_23_330
*836 FILLER_23_341
*837 FILLER_23_349
*838 FILLER_23_353
*839 FILLER_23_357
*840 FILLER_23_360
*841 FILLER_23_424
*842 FILLER_23_428
*843 FILLER_23_492
*844 FILLER_23_496
*845 FILLER_23_499
*846 FILLER_23_507
*847 FILLER_23_66
*848 FILLER_23_70
*849 FILLER_23_73
*850 FILLER_24_101
*851 FILLER_24_105
*852 FILLER_24_108
*853 FILLER_24_172
*854 FILLER_24_176
*855 FILLER_24_179
*856 FILLER_24_2
*857 FILLER_24_243
*858 FILLER_24_247
*859 FILLER_24_250
*860 FILLER_24_258
*861 FILLER_24_260
*862 FILLER_24_263
*863 FILLER_24_271
*864 FILLER_24_275
*865 FILLER_24_281
*866 FILLER_24_289
*867 FILLER_24_295
*868 FILLER_24_303
*869 FILLER_24_307
*870 FILLER_24_312
*871 FILLER_24_316
*872 FILLER_24_318
*873 FILLER_24_321
*874 FILLER_24_323
*875 FILLER_24_336
*876 FILLER_24_34
*877 FILLER_24_340
*878 FILLER_24_345
*879 FILLER_24_349
*880 FILLER_24_37
*881 FILLER_24_381
*882 FILLER_24_389
*883 FILLER_24_392
*884 FILLER_24_456
*885 FILLER_24_460
*886 FILLER_24_463
*887 FILLER_24_495
*888 FILLER_24_503
*889 FILLER_24_507
*890 FILLER_25_137
*891 FILLER_25_141
*892 FILLER_25_144
*893 FILLER_25_2
*894 FILLER_25_208
*895 FILLER_25_212
*896 FILLER_25_215
*897 FILLER_25_247
*898 FILLER_25_255
*899 FILLER_25_264
*900 FILLER_25_268
*901 FILLER_25_275
*902 FILLER_25_279
*903 FILLER_25_283
*904 FILLER_25_286
*905 FILLER_25_294
*906 FILLER_25_296
*907 FILLER_25_302
*908 FILLER_25_306
*909 FILLER_25_314
*910 FILLER_25_318
*911 FILLER_25_322
*912 FILLER_25_326
*913 FILLER_25_333
*914 FILLER_25_337
*915 FILLER_25_341
*916 FILLER_25_349
*917 FILLER_25_353
*918 FILLER_25_357
*919 FILLER_25_421
*920 FILLER_25_425
*921 FILLER_25_428
*922 FILLER_25_492
*923 FILLER_25_496
*924 FILLER_25_499
*925 FILLER_25_507
*926 FILLER_25_66
*927 FILLER_25_70
*928 FILLER_25_73
*929 FILLER_26_101
*930 FILLER_26_105
*931 FILLER_26_108
*932 FILLER_26_172
*933 FILLER_26_176
*934 FILLER_26_179
*935 FILLER_26_2
*936 FILLER_26_243
*937 FILLER_26_247
*938 FILLER_26_250
*939 FILLER_26_259
*940 FILLER_26_261
*941 FILLER_26_270
*942 FILLER_26_280
*943 FILLER_26_288
*944 FILLER_26_296
*945 FILLER_26_302
*946 FILLER_26_314
*947 FILLER_26_318
*948 FILLER_26_321
*949 FILLER_26_34
*950 FILLER_26_37
*951 FILLER_26_385
*952 FILLER_26_389
*953 FILLER_26_392
*954 FILLER_26_456
*955 FILLER_26_460
*956 FILLER_26_463
*957 FILLER_26_495
*958 FILLER_26_503
*959 FILLER_26_507
*960 FILLER_27_137
*961 FILLER_27_141
*962 FILLER_27_144
*963 FILLER_27_2
*964 FILLER_27_208
*965 FILLER_27_212
*966 FILLER_27_215
*967 FILLER_27_231
*968 FILLER_27_239
*969 FILLER_27_243
*970 FILLER_27_251
*971 FILLER_27_255
*972 FILLER_27_261
*973 FILLER_27_269
*974 FILLER_27_277
*975 FILLER_27_283
*976 FILLER_27_286
*977 FILLER_27_289
*978 FILLER_27_291
*979 FILLER_27_297
*980 FILLER_27_306
*981 FILLER_27_308
*982 FILLER_27_315
*983 FILLER_27_319
*984 FILLER_27_351
*985 FILLER_27_357
*986 FILLER_27_421
*987 FILLER_27_425
*988 FILLER_27_428
*989 FILLER_27_492
*990 FILLER_27_496
*991 FILLER_27_499
*992 FILLER_27_507
*993 FILLER_27_66
*994 FILLER_27_70
*995 FILLER_27_73
*996 FILLER_28_101
*997 FILLER_28_105
*998 FILLER_28_108
*999 FILLER_28_17
*1000 FILLER_28_172
*1001 FILLER_28_176
*1002 FILLER_28_179
*1003 FILLER_28_2
*1004 FILLER_28_21
*1005 FILLER_28_243
*1006 FILLER_28_247
*1007 FILLER_28_250
*1008 FILLER_28_266
*1009 FILLER_28_276
*1010 FILLER_28_280
*1011 FILLER_28_29
*1012 FILLER_28_292
*1013 FILLER_28_296
*1014 FILLER_28_304
*1015 FILLER_28_312
*1016 FILLER_28_316
*1017 FILLER_28_318
*1018 FILLER_28_321
*1019 FILLER_28_33
*1020 FILLER_28_37
*1021 FILLER_28_385
*1022 FILLER_28_389
*1023 FILLER_28_392
*1024 FILLER_28_456
*1025 FILLER_28_460
*1026 FILLER_28_463
*1027 FILLER_28_495
*1028 FILLER_28_503
*1029 FILLER_28_507
*1030 FILLER_29_137
*1031 FILLER_29_141
*1032 FILLER_29_144
*1033 FILLER_29_2
*1034 FILLER_29_208
*1035 FILLER_29_212
*1036 FILLER_29_215
*1037 FILLER_29_279
*1038 FILLER_29_283
*1039 FILLER_29_286
*1040 FILLER_29_350
*1041 FILLER_29_354
*1042 FILLER_29_357
*1043 FILLER_29_421
*1044 FILLER_29_425
*1045 FILLER_29_428
*1046 FILLER_29_492
*1047 FILLER_29_496
*1048 FILLER_29_499
*1049 FILLER_29_507
*1050 FILLER_29_66
*1051 FILLER_29_70
*1052 FILLER_29_73
*1053 FILLER_2_101
*1054 FILLER_2_105
*1055 FILLER_2_108
*1056 FILLER_2_172
*1057 FILLER_2_176
*1058 FILLER_2_179
*1059 FILLER_2_2
*1060 FILLER_2_243
*1061 FILLER_2_247
*1062 FILLER_2_250
*1063 FILLER_2_314
*1064 FILLER_2_318
*1065 FILLER_2_321
*1066 FILLER_2_34
*1067 FILLER_2_37
*1068 FILLER_2_385
*1069 FILLER_2_389
*1070 FILLER_2_392
*1071 FILLER_2_408
*1072 FILLER_2_412
*1073 FILLER_2_443
*1074 FILLER_2_447
*1075 FILLER_2_449
*1076 FILLER_2_452
*1077 FILLER_2_456
*1078 FILLER_2_460
*1079 FILLER_2_463
*1080 FILLER_2_496
*1081 FILLER_2_500
*1082 FILLER_2_508
*1083 FILLER_30_101
*1084 FILLER_30_105
*1085 FILLER_30_108
*1086 FILLER_30_172
*1087 FILLER_30_176
*1088 FILLER_30_179
*1089 FILLER_30_2
*1090 FILLER_30_243
*1091 FILLER_30_247
*1092 FILLER_30_250
*1093 FILLER_30_314
*1094 FILLER_30_318
*1095 FILLER_30_321
*1096 FILLER_30_34
*1097 FILLER_30_37
*1098 FILLER_30_385
*1099 FILLER_30_389
*1100 FILLER_30_392
*1101 FILLER_30_456
*1102 FILLER_30_460
*1103 FILLER_30_463
*1104 FILLER_30_495
*1105 FILLER_30_503
*1106 FILLER_30_507
*1107 FILLER_31_137
*1108 FILLER_31_141
*1109 FILLER_31_144
*1110 FILLER_31_2
*1111 FILLER_31_208
*1112 FILLER_31_212
*1113 FILLER_31_215
*1114 FILLER_31_279
*1115 FILLER_31_283
*1116 FILLER_31_286
*1117 FILLER_31_350
*1118 FILLER_31_354
*1119 FILLER_31_357
*1120 FILLER_31_421
*1121 FILLER_31_425
*1122 FILLER_31_428
*1123 FILLER_31_492
*1124 FILLER_31_496
*1125 FILLER_31_499
*1126 FILLER_31_507
*1127 FILLER_31_66
*1128 FILLER_31_70
*1129 FILLER_31_73
*1130 FILLER_32_101
*1131 FILLER_32_105
*1132 FILLER_32_108
*1133 FILLER_32_172
*1134 FILLER_32_176
*1135 FILLER_32_179
*1136 FILLER_32_2
*1137 FILLER_32_243
*1138 FILLER_32_247
*1139 FILLER_32_250
*1140 FILLER_32_314
*1141 FILLER_32_318
*1142 FILLER_32_321
*1143 FILLER_32_34
*1144 FILLER_32_37
*1145 FILLER_32_385
*1146 FILLER_32_389
*1147 FILLER_32_392
*1148 FILLER_32_456
*1149 FILLER_32_460
*1150 FILLER_32_463
*1151 FILLER_32_471
*1152 FILLER_32_475
*1153 FILLER_32_491
*1154 FILLER_32_495
*1155 FILLER_32_503
*1156 FILLER_32_507
*1157 FILLER_33_137
*1158 FILLER_33_141
*1159 FILLER_33_144
*1160 FILLER_33_2
*1161 FILLER_33_208
*1162 FILLER_33_212
*1163 FILLER_33_215
*1164 FILLER_33_279
*1165 FILLER_33_283
*1166 FILLER_33_286
*1167 FILLER_33_350
*1168 FILLER_33_354
*1169 FILLER_33_357
*1170 FILLER_33_421
*1171 FILLER_33_425
*1172 FILLER_33_428
*1173 FILLER_33_492
*1174 FILLER_33_496
*1175 FILLER_33_499
*1176 FILLER_33_507
*1177 FILLER_33_66
*1178 FILLER_33_70
*1179 FILLER_33_73
*1180 FILLER_34_101
*1181 FILLER_34_105
*1182 FILLER_34_108
*1183 FILLER_34_172
*1184 FILLER_34_176
*1185 FILLER_34_179
*1186 FILLER_34_2
*1187 FILLER_34_243
*1188 FILLER_34_247
*1189 FILLER_34_250
*1190 FILLER_34_314
*1191 FILLER_34_318
*1192 FILLER_34_321
*1193 FILLER_34_34
*1194 FILLER_34_37
*1195 FILLER_34_385
*1196 FILLER_34_389
*1197 FILLER_34_392
*1198 FILLER_34_456
*1199 FILLER_34_460
*1200 FILLER_34_463
*1201 FILLER_34_495
*1202 FILLER_34_503
*1203 FILLER_34_507
*1204 FILLER_35_137
*1205 FILLER_35_141
*1206 FILLER_35_144
*1207 FILLER_35_2
*1208 FILLER_35_208
*1209 FILLER_35_212
*1210 FILLER_35_215
*1211 FILLER_35_279
*1212 FILLER_35_283
*1213 FILLER_35_286
*1214 FILLER_35_350
*1215 FILLER_35_354
*1216 FILLER_35_357
*1217 FILLER_35_421
*1218 FILLER_35_425
*1219 FILLER_35_428
*1220 FILLER_35_492
*1221 FILLER_35_496
*1222 FILLER_35_499
*1223 FILLER_35_507
*1224 FILLER_35_66
*1225 FILLER_35_70
*1226 FILLER_35_73
*1227 FILLER_36_101
*1228 FILLER_36_105
*1229 FILLER_36_108
*1230 FILLER_36_172
*1231 FILLER_36_176
*1232 FILLER_36_179
*1233 FILLER_36_2
*1234 FILLER_36_243
*1235 FILLER_36_247
*1236 FILLER_36_250
*1237 FILLER_36_314
*1238 FILLER_36_318
*1239 FILLER_36_321
*1240 FILLER_36_34
*1241 FILLER_36_37
*1242 FILLER_36_385
*1243 FILLER_36_389
*1244 FILLER_36_392
*1245 FILLER_36_456
*1246 FILLER_36_460
*1247 FILLER_36_463
*1248 FILLER_36_495
*1249 FILLER_36_503
*1250 FILLER_36_507
*1251 FILLER_37_137
*1252 FILLER_37_141
*1253 FILLER_37_144
*1254 FILLER_37_2
*1255 FILLER_37_208
*1256 FILLER_37_212
*1257 FILLER_37_215
*1258 FILLER_37_279
*1259 FILLER_37_283
*1260 FILLER_37_286
*1261 FILLER_37_350
*1262 FILLER_37_354
*1263 FILLER_37_357
*1264 FILLER_37_421
*1265 FILLER_37_425
*1266 FILLER_37_428
*1267 FILLER_37_492
*1268 FILLER_37_496
*1269 FILLER_37_499
*1270 FILLER_37_507
*1271 FILLER_37_66
*1272 FILLER_37_70
*1273 FILLER_37_73
*1274 FILLER_38_101
*1275 FILLER_38_105
*1276 FILLER_38_108
*1277 FILLER_38_172
*1278 FILLER_38_176
*1279 FILLER_38_179
*1280 FILLER_38_2
*1281 FILLER_38_243
*1282 FILLER_38_247
*1283 FILLER_38_250
*1284 FILLER_38_314
*1285 FILLER_38_318
*1286 FILLER_38_321
*1287 FILLER_38_34
*1288 FILLER_38_37
*1289 FILLER_38_385
*1290 FILLER_38_389
*1291 FILLER_38_392
*1292 FILLER_38_456
*1293 FILLER_38_460
*1294 FILLER_38_463
*1295 FILLER_38_495
*1296 FILLER_38_503
*1297 FILLER_38_507
*1298 FILLER_39_137
*1299 FILLER_39_141
*1300 FILLER_39_144
*1301 FILLER_39_2
*1302 FILLER_39_208
*1303 FILLER_39_212
*1304 FILLER_39_215
*1305 FILLER_39_279
*1306 FILLER_39_283
*1307 FILLER_39_286
*1308 FILLER_39_350
*1309 FILLER_39_354
*1310 FILLER_39_357
*1311 FILLER_39_421
*1312 FILLER_39_425
*1313 FILLER_39_428
*1314 FILLER_39_492
*1315 FILLER_39_496
*1316 FILLER_39_499
*1317 FILLER_39_507
*1318 FILLER_39_66
*1319 FILLER_39_70
*1320 FILLER_39_73
*1321 FILLER_3_137
*1322 FILLER_3_141
*1323 FILLER_3_144
*1324 FILLER_3_2
*1325 FILLER_3_208
*1326 FILLER_3_212
*1327 FILLER_3_215
*1328 FILLER_3_279
*1329 FILLER_3_283
*1330 FILLER_3_286
*1331 FILLER_3_350
*1332 FILLER_3_354
*1333 FILLER_3_357
*1334 FILLER_3_373
*1335 FILLER_3_378
*1336 FILLER_3_382
*1337 FILLER_3_414
*1338 FILLER_3_422
*1339 FILLER_3_425
*1340 FILLER_3_428
*1341 FILLER_3_458
*1342 FILLER_3_462
*1343 FILLER_3_466
*1344 FILLER_3_496
*1345 FILLER_3_499
*1346 FILLER_3_502
*1347 FILLER_3_506
*1348 FILLER_3_508
*1349 FILLER_3_66
*1350 FILLER_3_70
*1351 FILLER_3_73
*1352 FILLER_40_101
*1353 FILLER_40_105
*1354 FILLER_40_108
*1355 FILLER_40_172
*1356 FILLER_40_176
*1357 FILLER_40_179
*1358 FILLER_40_2
*1359 FILLER_40_243
*1360 FILLER_40_247
*1361 FILLER_40_250
*1362 FILLER_40_314
*1363 FILLER_40_318
*1364 FILLER_40_321
*1365 FILLER_40_34
*1366 FILLER_40_37
*1367 FILLER_40_385
*1368 FILLER_40_389
*1369 FILLER_40_392
*1370 FILLER_40_456
*1371 FILLER_40_460
*1372 FILLER_40_463
*1373 FILLER_40_495
*1374 FILLER_40_503
*1375 FILLER_40_507
*1376 FILLER_41_137
*1377 FILLER_41_141
*1378 FILLER_41_144
*1379 FILLER_41_2
*1380 FILLER_41_208
*1381 FILLER_41_212
*1382 FILLER_41_215
*1383 FILLER_41_279
*1384 FILLER_41_283
*1385 FILLER_41_286
*1386 FILLER_41_350
*1387 FILLER_41_354
*1388 FILLER_41_357
*1389 FILLER_41_421
*1390 FILLER_41_425
*1391 FILLER_41_428
*1392 FILLER_41_492
*1393 FILLER_41_496
*1394 FILLER_41_499
*1395 FILLER_41_507
*1396 FILLER_41_66
*1397 FILLER_41_70
*1398 FILLER_41_73
*1399 FILLER_42_101
*1400 FILLER_42_105
*1401 FILLER_42_108
*1402 FILLER_42_172
*1403 FILLER_42_176
*1404 FILLER_42_179
*1405 FILLER_42_2
*1406 FILLER_42_243
*1407 FILLER_42_247
*1408 FILLER_42_250
*1409 FILLER_42_314
*1410 FILLER_42_318
*1411 FILLER_42_321
*1412 FILLER_42_34
*1413 FILLER_42_37
*1414 FILLER_42_385
*1415 FILLER_42_389
*1416 FILLER_42_392
*1417 FILLER_42_456
*1418 FILLER_42_460
*1419 FILLER_42_463
*1420 FILLER_42_495
*1421 FILLER_42_503
*1422 FILLER_42_507
*1423 FILLER_43_137
*1424 FILLER_43_141
*1425 FILLER_43_144
*1426 FILLER_43_2
*1427 FILLER_43_208
*1428 FILLER_43_212
*1429 FILLER_43_215
*1430 FILLER_43_279
*1431 FILLER_43_283
*1432 FILLER_43_286
*1433 FILLER_43_350
*1434 FILLER_43_354
*1435 FILLER_43_357
*1436 FILLER_43_421
*1437 FILLER_43_425
*1438 FILLER_43_428
*1439 FILLER_43_492
*1440 FILLER_43_496
*1441 FILLER_43_499
*1442 FILLER_43_507
*1443 FILLER_43_66
*1444 FILLER_43_70
*1445 FILLER_43_73
*1446 FILLER_44_101
*1447 FILLER_44_105
*1448 FILLER_44_108
*1449 FILLER_44_17
*1450 FILLER_44_172
*1451 FILLER_44_176
*1452 FILLER_44_179
*1453 FILLER_44_2
*1454 FILLER_44_21
*1455 FILLER_44_243
*1456 FILLER_44_247
*1457 FILLER_44_250
*1458 FILLER_44_29
*1459 FILLER_44_314
*1460 FILLER_44_318
*1461 FILLER_44_321
*1462 FILLER_44_33
*1463 FILLER_44_37
*1464 FILLER_44_385
*1465 FILLER_44_389
*1466 FILLER_44_392
*1467 FILLER_44_456
*1468 FILLER_44_460
*1469 FILLER_44_463
*1470 FILLER_44_495
*1471 FILLER_44_503
*1472 FILLER_44_507
*1473 FILLER_45_137
*1474 FILLER_45_141
*1475 FILLER_45_144
*1476 FILLER_45_2
*1477 FILLER_45_208
*1478 FILLER_45_212
*1479 FILLER_45_215
*1480 FILLER_45_279
*1481 FILLER_45_283
*1482 FILLER_45_286
*1483 FILLER_45_350
*1484 FILLER_45_354
*1485 FILLER_45_357
*1486 FILLER_45_421
*1487 FILLER_45_425
*1488 FILLER_45_428
*1489 FILLER_45_492
*1490 FILLER_45_496
*1491 FILLER_45_499
*1492 FILLER_45_507
*1493 FILLER_45_66
*1494 FILLER_45_70
*1495 FILLER_45_73
*1496 FILLER_46_101
*1497 FILLER_46_105
*1498 FILLER_46_108
*1499 FILLER_46_172
*1500 FILLER_46_176
*1501 FILLER_46_179
*1502 FILLER_46_2
*1503 FILLER_46_243
*1504 FILLER_46_247
*1505 FILLER_46_250
*1506 FILLER_46_314
*1507 FILLER_46_318
*1508 FILLER_46_321
*1509 FILLER_46_34
*1510 FILLER_46_37
*1511 FILLER_46_385
*1512 FILLER_46_389
*1513 FILLER_46_392
*1514 FILLER_46_456
*1515 FILLER_46_460
*1516 FILLER_46_463
*1517 FILLER_46_495
*1518 FILLER_46_503
*1519 FILLER_46_507
*1520 FILLER_47_137
*1521 FILLER_47_141
*1522 FILLER_47_144
*1523 FILLER_47_2
*1524 FILLER_47_208
*1525 FILLER_47_212
*1526 FILLER_47_215
*1527 FILLER_47_279
*1528 FILLER_47_283
*1529 FILLER_47_286
*1530 FILLER_47_350
*1531 FILLER_47_354
*1532 FILLER_47_357
*1533 FILLER_47_421
*1534 FILLER_47_425
*1535 FILLER_47_428
*1536 FILLER_47_492
*1537 FILLER_47_496
*1538 FILLER_47_499
*1539 FILLER_47_507
*1540 FILLER_47_66
*1541 FILLER_47_70
*1542 FILLER_47_73
*1543 FILLER_48_101
*1544 FILLER_48_105
*1545 FILLER_48_108
*1546 FILLER_48_172
*1547 FILLER_48_176
*1548 FILLER_48_179
*1549 FILLER_48_2
*1550 FILLER_48_243
*1551 FILLER_48_247
*1552 FILLER_48_250
*1553 FILLER_48_314
*1554 FILLER_48_318
*1555 FILLER_48_321
*1556 FILLER_48_34
*1557 FILLER_48_37
*1558 FILLER_48_385
*1559 FILLER_48_389
*1560 FILLER_48_392
*1561 FILLER_48_456
*1562 FILLER_48_460
*1563 FILLER_48_463
*1564 FILLER_48_471
*1565 FILLER_48_475
*1566 FILLER_48_491
*1567 FILLER_48_495
*1568 FILLER_48_503
*1569 FILLER_48_507
*1570 FILLER_49_137
*1571 FILLER_49_141
*1572 FILLER_49_144
*1573 FILLER_49_2
*1574 FILLER_49_208
*1575 FILLER_49_212
*1576 FILLER_49_215
*1577 FILLER_49_279
*1578 FILLER_49_283
*1579 FILLER_49_286